*Heading
** Job name: Job-Global-G2L1-forspecimen1 Model name: 2-15-Global-G2L1-forspecimen1
** Generated by: Abaqus/CAE 2020
*Preprint, echo=NO, model=NO, history=NO, contact=NO
**
** PARTS
**
*Part, name="Beam G2 W36x302 AccessHoleImproved RBS1"
*Node
      1,   7.67500019,  -5.44000006,   153.636978
      2,        8.625,  -5.44000006,   153.636978
      3,        8.625,  -7.11999989,   153.636978
      4,   7.67500019,  -7.11999989,   153.636978
      5,   7.67500019,  -5.44000006,        141.5
      6,        8.625,  -5.44000006,        141.5
      7,        8.625,  -7.11999989,        141.5
      8,   7.67500019,  -7.11999989,        141.5
      9, -0.200000003,  -7.11999989,   153.636978
     10, -0.200000003,  -5.44000006,   153.636978
     11,   2.43000007,  -7.11999989,        141.5
     12,   2.43000007,  -5.44000006,        141.5
     13,   7.67500019,         28.5,   153.636978
     14, -0.200000003,         28.5,   153.636978
     15, -0.200000003,   30.1800003,   153.636978
     16,   7.67500019,   30.1800003,   153.636978
     17,   7.67500019,         28.5,        141.5
     18,   2.43000007,         28.5,        141.5
     19,   2.43000007,   30.1800003,        141.5
     20,   7.67500019,   30.1800003,        141.5
** ... 8221 like lines cut
*Element, type=C3D20
 1,    1,    2,  173,  174,  181,  189, 1413, 1409, 4322, 4321, 4320, 4319, 4323, 4324, 4325,
    4326, 4328, 4327, 4329, 4330
 2,  174,  173,    3,    4, 1409, 1413,  188,  180, 4320, 4333, 4332, 4331, 4325, 4334, 4335,
    4336, 4330, 4329, 4337, 4338
 3,  181,  189, 1413, 1409,  182,  190, 1414, 1410, 4323, 4324, 4325, 4326, 4339, 4340, 4341,
    4342, 4344, 4343, 4345, 4346
 4, 1409, 1413,  188,  180, 1410, 1414,  187,  179, 4325, 4334, 4335, 4336, 4341, 4347, 4348,
    4349, 4346, 4345, 4350, 4351
 5,  182,  190, 1414, 1410,  183,  191, 1415, 1411, 4339, 4340, 4341, 4342, 4352, 4353, 4354,
    4355, 4357, 4356, 4358, 4359
 6, 1410, 1414,  187,  179, 1411, 1415,  186,  178, 4341, 4347, 4348, 4349, 4354, 4360, 4361,
    4362, 4359, 4358, 4363, 4364
 7,  183,  191, 1415, 1411,  184,  192, 1416, 1412, 4352, 4353, 4354, 4355, 4365, 4366, 4367,
    4368, 4370, 4369, 4371, 4372
 8, 1411, 1415,  186,  178, 1412, 1416,  185,  177, 4354, 4360, 4361, 4362, 4367, 4373, 4374,
    4375, 4372, 4371, 4376, 4377
 9,  184,  192, 1416, 1412,    5,    6,  175,  176, 4365, 4366, 4367, 4368, 4378, 4379, 4380,
    4381, 4383, 4382, 4384, 4385
10, 1412, 1416,  185,  177,  176,  175,    7,    8, 4367, 4373, 4374, 4375, 4380, 4386, 4387,
    4388, 4385, 4384, 4389, 4390
** ... 1680 like lines cut
*Element, type=C3D8R
651,  656, 2186, 3923, 2000,   83,  587, 1997,  594
652, 2186,  688, 2093, 3923,  587,   84,  588, 1997
653, 2000, 3923, 3924, 2001,  594, 1997, 1998,  593
654, 3923, 2093, 2094, 3924, 1997,  588,  589, 1998
655, 2001, 3924, 3925, 2002,  593, 1998, 1999,  592
656, 3924, 2094, 2095, 3925, 1998,  589,  590, 1999
657, 2002, 3925, 2217,  595,  592, 1999,  591,   86
658, 3925, 2095,  687, 2217, 1999,  590,   85,  591
659,  655, 2187, 3926, 2003,  656, 2186, 3923, 2000
660, 2187,  689, 2096, 3926, 2186,  688, 2093, 3923
661, 2003, 3926, 3927, 2004, 2000, 3923, 3924, 2001
662, 3926, 2096, 2097, 3927, 3923, 2093, 2094, 3924
663, 2004, 3927, 3928, 2005, 2001, 3924, 3925, 2002
664, 3927, 2097, 2098, 3928, 3924, 2094, 2095, 3925
665, 2005, 3928, 2218,  596, 2002, 3925, 2217,  595
666, 3928, 2098,  686, 2218, 3925, 2095,  687, 2217
667,  654, 2188, 3929, 2006,  655, 2187, 3926, 2003
668, 2188,  690, 2099, 3929, 2187,  689, 2096, 3926
669, 2006, 3929, 3930, 2007, 2003, 3926, 3927, 2004
670, 3929, 2099, 2100, 3930, 3926, 2096, 2097, 3927
** ... 1580 like lines cut
*Element, type=C3D15
2395,  104,  105,  141,  109,  110,  142, 7340, 7944, 7943, 7343, 7945, 7946, 7346, 7345, 7947
2396,  120,  126,  143,  118,  124,  144, 7539, 7949, 7948, 7534, 7950, 7951, 7463, 7541, 7952
*Nset, nset=_PickedSet36, internal, generate
    1,  8241,     1
*Elset, elset=_PickedSet36, internal, generate
    1,  2452,     1
** Section: Beam
*Solid Section, elset=_PickedSet36, material=BeamA992
,
*End Part
**  
*Part, name="Column 36x24x2-backup"
*Node
      1,          -2.,          14.,          90.
      2,          -2.,          12.,          90.
      3,           0.,          12.,          90.
      4,           0.,          14.,          90.
      5,          -2.,          12.,          18.
      6,           0.,          12.,          18.
      7,           0.,          14.,          18.
      8,          -2.,          14.,          18.
      9,         -36.,          12.,          90.
     10,         -34.,          12.,          90.
     11,         -34.,          14.,          90.
     12,         -36.,          14.,          90.
     13,         -34.,          12.,          18.
     14,         -34.,          14.,          18.
     15,         -36.,          14.,          18.
     16,         -36.,          12.,          18.
     17,         -34.,          -8.,          90.
     18,         -36.,          -8.,          90.
     19,         -36.,          -8.,          18.
     20,         -34.,          -8.,          18.
** ... 5783 like lines cut
*Element, type=C3D8R
 1,  134,  168, 1278, 1261,    1,    2,   97,   98
 2, 1261, 1278,  135,  101,   98,   97,    3,    4
 3,  133,  167, 1279, 1262,  134,  168, 1278, 1261
 4, 1262, 1279,  136,  102, 1261, 1278,  135,  101
 5,  132,  166, 1280, 1263,  133,  167, 1279, 1262
 6, 1263, 1280,  137,  103, 1262, 1279,  136,  102
 7,  131,  165, 1281, 1264,  132,  166, 1280, 1263
 8, 1264, 1281,  138,  104, 1263, 1280,  137,  103
 9,  130,  164, 1282, 1265,  131,  165, 1281, 1264
10, 1265, 1282,  139,  105, 1264, 1281,  138,  104
11,  129,  163, 1283, 1266,  130,  164, 1282, 1265
12, 1266, 1283,  140,  106, 1265, 1282,  139,  105
13,  128,  162, 1284, 1267,  129,  163, 1283, 1266
14, 1267, 1284,  141,  107, 1266, 1283,  140,  106
15,  127,  161, 1285, 1268,  128,  162, 1284, 1267
16, 1268, 1285,  142,  108, 1267, 1284,  141,  107
17,  126,  160, 1286, 1269,  127,  161, 1285, 1268
18, 1269, 1286,  143,  109, 1268, 1285,  142,  108
19,  125,  159, 1287, 1270,  126,  160, 1286, 1269
20, 1270, 1287,  144,  110, 1269, 1286,  143,  109
** ... 2372 like lines cut
*Element, type=C3D20R
 811,   25,  321, 1431,  339,  639, 2157, 4426, 2146, 4735, 4734, 4733, 4732, 4736, 4737, 4738,
      4739, 4741, 4740, 4742, 4743
 812,  321,  322, 1432, 1431, 2157, 2158, 4427, 4426, 4746, 4745, 4744, 4734, 4747, 4748, 4749,
      4737, 4740, 4750, 4751, 4742
 813,  322,  323, 1433, 1432, 2158, 2159, 4428, 4427, 4754, 4753, 4752, 4745, 4755, 4756, 4757,
      4748, 4750, 4758, 4759, 4751
 814,  323,  324, 1434, 1433, 2159, 2160, 4429, 4428, 4762, 4761, 4760, 4753, 4763, 4764, 4765,
      4756, 4758, 4766, 4767, 4759
 815,  324,  325, 1435, 1434, 2160, 2161, 4430, 4429, 4770, 4769, 4768, 4761, 4771, 4772, 4773,
      4764, 4766, 4774, 4775, 4767
 816,  325,  326, 1436, 1435, 2161, 2162, 4431, 4430, 4778, 4777, 4776, 4769, 4779, 4780, 4781,
      4772, 4774, 4782, 4783, 4775
 817,  326,  327, 1437, 1436, 2162, 2163, 4432, 4431, 4786, 4785, 4784, 4777, 4787, 4788, 4789,
      4780, 4782, 4790, 4791, 4783
 818,  327,  328, 1438, 1437, 2163, 2164, 4433, 4432, 4794, 4793, 4792, 4785, 4795, 4796, 4797,
      4788, 4790, 4798, 4799, 4791
 819,  328,  329, 1439, 1438, 2164, 2165, 4434, 4433, 4802, 4801, 4800, 4793, 4803, 4804, 4805,
      4796, 4798, 4806, 4807, 4799
 820,  329,    3,   97, 1439, 2165,  491, 2038, 4434, 4810, 4809, 4808, 4801, 4811, 4812, 4813,
      4804, 4806, 4814, 4815, 4807
** ... 460 like lines cut
*Nset, nset=_PickedSet24, internal, generate
    1,  5803,     1
*Elset, elset=_PickedSet24, internal, generate
    1,  2632,     1
** Section: Column
*Solid Section, elset=_PickedSet24, material=ColumnA572
,
*End Part
**  
*Part, name="continuity plate"
*Node
      1,         -30.,        19.25,           0.
      2,         -30.,        19.25,   1.67999995
      3,         -30.,        -8.75,   1.67999995
      4,         -30.,        -8.75,           0.
      5,         -30.,        23.25,           0.
      6,         -30.,        23.25,   1.67999995
      7,         -30.,        19.25,  0.839999974
      8,         -30.,        15.25,   1.67999995
      9,         -30.,        11.25,   1.67999995
     10,         -30.,         7.25,   1.67999995
     11,         -30.,         3.25,   1.67999995
     12,         -30.,        -0.75,   1.67999995
     13,         -30.,        -4.75,   1.67999995
     14,         -30.,        -8.75,  0.839999974
     15,         -30.,        -4.75,           0.
     16,         -30.,        -0.75,           0.
     17,         -30.,         3.25,           0.
     18,         -30.,         7.25,           0.
     19,         -30.,        11.25,           0.
     20,         -30.,        15.25,           0.
** ... 160 like lines cut
*Element, type=C3D8R
 1,  20,  24,   7,   1,  50,  54,  37,  31
 2,  24,   8,   2,   7,  54,  38,  32,  37
 3,  19,  25,  24,  20,  49,  55,  54,  50
 4,  25,   9,   8,  24,  55,  39,  38,  54
 5,  18,  26,  25,  19,  48,  56,  55,  49
 6,  26,  10,   9,  25,  56,  40,  39,  55
 7,  17,  27,  26,  18,  47,  57,  56,  48
 8,  27,  11,  10,  26,  57,  41,  40,  56
 9,  16,  28,  27,  17,  46,  58,  57,  47
10,  28,  12,  11,  27,  58,  42,  41,  57
11,  15,  29,  28,  16,  45,  59,  58,  46
12,  29,  13,  12,  28,  59,  43,  42,  58
13,   4,  14,  29,  15,  34,  44,  59,  45
14,  14,   3,  13,  29,  44,  33,  43,  59
15,  23,  30,   7,   2,  53,  60,  37,  32
16,  30,  21,   1,   7,  60,  51,  31,  37
17,   6,  22,  30,  23,  36,  52,  60,  53
18,  22,   5,  21,  30,  52,  35,  51,  60
19,  50,  54,  37,  31,  80,  84,  67,  61
20,  54,  38,  32,  37,  84,  68,  62,  67
** ... 70 like lines cut
*Nset, nset=_PickedSet10, internal, generate
   1,  180,    1
*Elset, elset=_PickedSet10, internal, generate
  1,  90,   1
** Section: ContinuityPlate
*Solid Section, elset=_PickedSet10, material=ContinuityPlateA572
,
*End Part
**  
**
** ASSEMBLY
**
*Assembly, name=Assembly
**  
*Instance, name="Beam G2 W36x302 AccessHoleImproved RBS1-1", part="Beam G2 W36x302 AccessHoleImproved RBS1"
        162.,       104.47, -8.14999999999998
        162.,       104.47, -8.14999999999998,         162., 103.469999987312, -8.14999999999998, 89.9999992730282
*End Instance
**  
*Instance, name="Column 36x24x2-backup-1", part="Column 36x24x2-backup"
          0.,         230.,          -2.
          0.,         230.,          -2., 1.00000001268805,         230.,          -2., 89.9999992730282
*End Instance
**  
*Instance, name="continuity plate-1", part="continuity plate"
    -25.2505,        97.35,          40.
    -25.2505,        97.35,          40., -25.8278502691896, 96.7726497308104, 39.4226497308104,         120.
*End Instance
**  
*Instance, name="continuity plate-2", part="continuity plate"
    -25.2505,       132.97,          40.
    -25.2505,       132.97,          40., -25.8278502691896, 132.39264973081, 39.4226497308104,         120.
*End Instance
**  
*Node
      1,         162.,         116.,           0.
*Node
      2,         -18.,           2.,           0.
*Nset, nset="BC Bottom left", instance="Column 36x24x2-backup-1"
  53,  54,  55,  64, 839, 840, 841, 842
*Elset, elset="BC Bottom left", instance="Column 36x24x2-backup-1"
 1572, 1658, 1659, 1660, 1661, 1662, 2256, 2488, 2504, 2505, 2506, 2507, 2508, 2629
*Nset, nset="BC Top", instance="Column 36x24x2-backup-1"
  15,  16,  19,  23, 249, 250, 251, 252
*Elset, elset="BC Top", instance="Column 36x24x2-backup-1"
   54,  140,  141,  142,  143,  144,  162, 2257, 2261, 2262, 2263, 2264, 2265, 2281
*Nset, nset="Column bottom", instance="Column 36x24x2-backup-1"
   81,   82,   83,   84,   85,   86,   87,   88,   89,   90,   91,   92,   93,   94,   95,   96
 1155, 1156, 1169, 1170, 1171, 1172, 1173, 1174, 1175, 1176, 1177, 1178, 1179, 1180, 1181, 1182
 1195, 1196, 1197, 1198, 1199, 1200, 1201, 1202, 1209, 1210, 1211, 1212, 1213, 1214, 1215, 1216
 1217, 1218, 1219, 1220, 1221, 1222, 1223, 1224, 1225, 1226, 1227, 1234, 1235, 1236, 1237, 1238
 1239, 1240, 1241, 1242, 1243, 1244, 1245, 1246, 1247, 1254, 4162, 4163, 4164, 4165, 4166, 4167
 4168, 4169, 4170
*Elset, elset="Column bottom", instance="Column 36x24x2-backup-1"
 2445, 2446, 2477, 2478, 2479, 2480, 2481, 2482, 2483, 2484, 2485, 2489, 2490, 2491, 2492, 2493
 2509, 2510, 2511, 2512, 2513, 2514, 2515, 2516, 2517, 2518, 2519, 2520, 2521, 2522, 2523, 2524
 2525, 2526, 2527, 2528, 2613, 2614, 2615, 2616, 2617, 2618, 2619, 2620, 2621, 2622, 2632
*Nset, nset=m_Set-5
 2,
*Nset, nset=_PickedSet33, internal
 2,
*Nset, nset=_PickedSet34, internal
 1,
*Nset, nset=_PickedSet274, internal
 1,
*Nset, nset=_PickedSet371, internal, instance="Beam G2 W36x302 AccessHoleImproved RBS1-1"
   83,   84,   85,   86,   87,   88,   89,   90,   91,   92,   93,   94,   95,   96,   97,   98
   99,  100,  101,  102,  587,  588,  589,  590,  591,  592,  593,  594,  719,  782,  783,  784
  785,  786,  787,  788,  851,  852,  915,  916,  917,  918,  919,  920,  921,  922,  923,  924
  925,  926,  927,  928,  929,  930,  931,  932,  995,  996, 1059, 1060, 1061, 1062, 1063, 1064
 1065, 1066, 1160, 1161, 1162, 1163, 1164, 1165, 1166, 1167, 1997, 1998, 1999, 2279, 2280, 2281
 3181, 3182, 3183, 3432, 3433, 3434
*Elset, elset=_PickedSet371, internal, instance="Beam G2 W36x302 AccessHoleImproved RBS1-1"
  651,  652,  653,  654,  655,  656,  657,  658,  907,  908,  971,  972,  973,  974,  975,  976
  977,  978, 1227, 1228, 1291, 1292, 1293, 1294, 1295, 1296, 1297, 1298, 1299, 1300, 1611, 1612
 1675, 1676, 1677, 1678, 1679, 1680, 1681, 1682, 1931, 1932, 1933, 1934, 1935, 1936, 1937, 1938
 2249, 2250
*Nset, nset=_PickedSet393, internal, instance="Column 36x24x2-backup-1"
   81,   82,   83,   84,   85,   86,   87,   88,   89,   90,   91,   92,   93,   94,   95,   96
 1155, 1156, 1169, 1170, 1171, 1172, 1173, 1174, 1175, 1176, 1177, 1178, 1179, 1180, 1181, 1182
 1195, 1196, 1197, 1198, 1199, 1200, 1201, 1202, 1209, 1210, 1211, 1212, 1213, 1214, 1215, 1216
 1217, 1218, 1219, 1220, 1221, 1222, 1223, 1224, 1225, 1226, 1227, 1234, 1235, 1236, 1237, 1238
 1239, 1240, 1241, 1242, 1243, 1244, 1245, 1246, 1247, 1254, 4162, 4163, 4164, 4165, 4166, 4167
 4168, 4169, 4170
*Elset, elset=_PickedSet393, internal, instance="Column 36x24x2-backup-1"
 2445, 2446, 2477, 2478, 2479, 2480, 2481, 2482, 2483, 2484, 2485, 2489, 2490, 2491, 2492, 2493
 2509, 2510, 2511, 2512, 2513, 2514, 2515, 2516, 2517, 2518, 2519, 2520, 2521, 2522, 2523, 2524
 2525, 2526, 2527, 2528, 2613, 2614, 2615, 2616, 2617, 2618, 2619, 2620, 2621, 2622, 2632
*Elset, elset="_Column face_S3", internal, instance="Column 36x24x2-backup-1"
  811,  812,  813,  814,  815,  816,  817,  818,  819,  820,  831,  832,  833,  834,  835,  836
  837,  838,  839,  840,  851,  852,  853,  854,  855,  856,  857,  858,  859,  860,  871,  872
  873,  874,  875,  876,  877,  878,  879,  880,  891,  892,  893,  894,  895,  896,  897,  898
  899,  900,  911,  912,  913,  914,  915,  916,  917,  918,  919,  920,  931,  932,  933,  934
  935,  936,  937,  938,  939,  940,  951,  952,  953,  954,  955,  956,  957,  958,  959,  960
  971,  972,  973,  974,  975,  976,  977,  978,  979,  980,  991,  992,  993,  994,  995,  996
  997,  998,  999, 1000, 1011, 1012, 1013, 1014, 1015, 1016, 1017, 1018, 1019, 1020, 1031, 1032
 1033, 1034, 1035, 1036, 1037, 1038, 1039, 1040
*Surface, type=ELEMENT, name="Column face"
"_Column face_S3", S3
*Elset, elset="_Column inner_S4", internal, instance="Column 36x24x2-backup-1", generate
 1051,  1146,     1
*Elset, elset="_Column inner_S3", internal, instance="Column 36x24x2-backup-1", generate
 739,  798,    1
*Elset, elset="_Column inner_S2", internal, instance="Column 36x24x2-backup-1", generate
 1315,  1410,     1
*Elset, elset="_Column inner_S5", internal, instance="Column 36x24x2-backup-1"
  821,  822,  823,  824,  825,  826,  827,  828,  829,  830,  841,  842,  843,  844,  845,  846
  847,  848,  849,  850,  861,  862,  863,  864,  865,  866,  867,  868,  869,  870,  881,  882
  883,  884,  885,  886,  887,  888,  889,  890,  901,  902,  903,  904,  905,  906,  907,  908
  909,  910,  921,  922,  923,  924,  925,  926,  927,  928,  929,  930,  941,  942,  943,  944
  945,  946,  947,  948,  949,  950,  961,  962,  963,  964,  965,  966,  967,  968,  969,  970
  981,  982,  983,  984,  985,  986,  987,  988,  989,  990, 1001, 1002, 1003, 1004, 1005, 1006
 1007, 1008, 1009, 1010, 1021, 1022, 1023, 1024, 1025, 1026, 1027, 1028, 1029, 1030, 1041, 1042
 1043, 1044, 1045, 1046, 1047, 1048, 1049, 1050
*Surface, type=ELEMENT, name="Column inner"
"_Column inner_S4", S4
"_Column inner_S3", S3
"_Column inner_S2", S2
"_Column inner_S5", S5
*Elset, elset="_SB (2Column)_S1", internal, instance="continuity plate-1", generate
  1,  18,   1
*Elset, elset="_SB (2Column)_S1", internal, instance="continuity plate-2", generate
  1,  18,   1
*Elset, elset="_SB (2Column)_S3", internal, instance="continuity plate-1"
 13, 14, 17, 18, 31, 32, 35, 36, 49, 50, 53, 54, 67, 68, 71, 72
 85, 86, 89, 90
*Elset, elset="_SB (2Column)_S3", internal, instance="continuity plate-2"
 13, 14, 17, 18, 31, 32, 35, 36, 49, 50, 53, 54, 67, 68, 71, 72
 85, 86, 89, 90
*Elset, elset="_SB (2Column)_S2", internal, instance="continuity plate-1", generate
 73,  90,   1
*Elset, elset="_SB (2Column)_S2", internal, instance="continuity plate-2", generate
 73,  90,   1
*Surface, type=ELEMENT, name="SB (2Column)"
"_SB (2Column)_S1", S1
"_SB (2Column)_S3", S3
"_SB (2Column)_S2", S2
*Elset, elset="_beam weld_S3", internal, instance="Beam G2 W36x302 AccessHoleImproved RBS1-1"
 2253, 2254, 2257, 2258, 2261, 2262, 2265, 2266, 2269, 2270, 2293, 2294, 2297, 2298, 2301, 2302
 2305, 2306, 2309, 2310
*Elset, elset="_beam weld_S6", internal, instance="Beam G2 W36x302 AccessHoleImproved RBS1-1"
 2313, 2314, 2317, 2318, 2321, 2322, 2325, 2326, 2345, 2346, 2349, 2350, 2353, 2354, 2357, 2358
*Elset, elset="_beam weld_S5", internal, instance="Beam G2 W36x302 AccessHoleImproved RBS1-1", generate
 2411,  2433,     2
*Elset, elset="_beam weld_S2", internal, instance="Beam G2 W36x302 AccessHoleImproved RBS1-1"
 2408, 2409
*Surface, type=ELEMENT, name="beam weld"
"_beam weld_S3", S3
"_beam weld_S6", S6
"_beam weld_S2", S2
"_beam weld_S5", S5
*Surface, type=NODE, name=_PickedSet393_CNS_, internal
_PickedSet393, 1.
*Elset, elset="__MixOrder0_Beam G2 W36x302 AccessHoleImproved RBS1-1_M_S1", internal, instance="Beam G2 W36x302 AccessHoleImproved RBS1-1"
 969, 970
*Surface, type=ELEMENT, name="_MixOrder0_Beam G2 W36x302 AccessHoleImproved RBS1-1_M", internal
"__MixOrder0_Beam G2 W36x302 AccessHoleImproved RBS1-1_M_S1", S1
*Elset, elset="__MixOrder0_Beam G2 W36x302 AccessHoleImproved RBS1-1_S_S2", internal, instance="Beam G2 W36x302 AccessHoleImproved RBS1-1"
 241, 242
*Surface, type=ELEMENT, name="_MixOrder0_Beam G2 W36x302 AccessHoleImproved RBS1-1_S", internal
"__MixOrder0_Beam G2 W36x302 AccessHoleImproved RBS1-1_S_S2", S2
*Tie, name="_MixOrder0_Beam G2 W36x302 AccessHoleImproved RBS1-1", adjust=no
"_MixOrder0_Beam G2 W36x302 AccessHoleImproved RBS1-1_S", "_MixOrder0_Beam G2 W36x302 AccessHoleImproved RBS1-1_M"
*Elset, elset="__MixOrder1_Beam G2 W36x302 AccessHoleImproved RBS1-1_M_S1", internal, instance="Beam G2 W36x302 AccessHoleImproved RBS1-1", generate
 1219,  1226,     1
*Surface, type=ELEMENT, name="_MixOrder1_Beam G2 W36x302 AccessHoleImproved RBS1-1_M", internal
"__MixOrder1_Beam G2 W36x302 AccessHoleImproved RBS1-1_M_S1", S1
*Elset, elset="__MixOrder1_Beam G2 W36x302 AccessHoleImproved RBS1-1_S_S2", internal, instance="Beam G2 W36x302 AccessHoleImproved RBS1-1", generate
 251,  258,    1
*Surface, type=ELEMENT, name="_MixOrder1_Beam G2 W36x302 AccessHoleImproved RBS1-1_S", internal
"__MixOrder1_Beam G2 W36x302 AccessHoleImproved RBS1-1_S_S2", S2
*Tie, name="_MixOrder1_Beam G2 W36x302 AccessHoleImproved RBS1-1", adjust=no
"_MixOrder1_Beam G2 W36x302 AccessHoleImproved RBS1-1_S", "_MixOrder1_Beam G2 W36x302 AccessHoleImproved RBS1-1_M"
*Elset, elset="__MixOrder2_Beam G2 W36x302 AccessHoleImproved RBS1-1_M_S1", internal, instance="Beam G2 W36x302 AccessHoleImproved RBS1-1", generate
 1923,  1930,     1
*Surface, type=ELEMENT, name="_MixOrder2_Beam G2 W36x302 AccessHoleImproved RBS1-1_M", internal
"__MixOrder2_Beam G2 W36x302 AccessHoleImproved RBS1-1_M_S1", S1
*Elset, elset="__MixOrder2_Beam G2 W36x302 AccessHoleImproved RBS1-1_S_S2", internal, instance="Beam G2 W36x302 AccessHoleImproved RBS1-1", generate
 291,  298,    1
*Surface, type=ELEMENT, name="_MixOrder2_Beam G2 W36x302 AccessHoleImproved RBS1-1_S", internal
"__MixOrder2_Beam G2 W36x302 AccessHoleImproved RBS1-1_S_S2", S2
*Tie, name="_MixOrder2_Beam G2 W36x302 AccessHoleImproved RBS1-1", adjust=no
"_MixOrder2_Beam G2 W36x302 AccessHoleImproved RBS1-1_S", "_MixOrder2_Beam G2 W36x302 AccessHoleImproved RBS1-1_M"
*Elset, elset="__MixOrder3_Beam G2 W36x302 AccessHoleImproved RBS1-1_M_S1", internal, instance="Beam G2 W36x302 AccessHoleImproved RBS1-1", generate
 2179,  2186,     1
*Surface, type=ELEMENT, name="_MixOrder3_Beam G2 W36x302 AccessHoleImproved RBS1-1_M", internal
"__MixOrder3_Beam G2 W36x302 AccessHoleImproved RBS1-1_M_S1", S1
*Elset, elset="__MixOrder3_Beam G2 W36x302 AccessHoleImproved RBS1-1_S_S2", internal, instance="Beam G2 W36x302 AccessHoleImproved RBS1-1", generate
 331,  338,    1
*Surface, type=ELEMENT, name="_MixOrder3_Beam G2 W36x302 AccessHoleImproved RBS1-1_S", internal
"__MixOrder3_Beam G2 W36x302 AccessHoleImproved RBS1-1_S_S2", S2
*Tie, name="_MixOrder3_Beam G2 W36x302 AccessHoleImproved RBS1-1", adjust=no
"_MixOrder3_Beam G2 W36x302 AccessHoleImproved RBS1-1_S", "_MixOrder3_Beam G2 W36x302 AccessHoleImproved RBS1-1_M"
*Elset, elset="__MixOrder4_Beam G2 W36x302 AccessHoleImproved RBS1-1_M_S1", internal, instance="Beam G2 W36x302 AccessHoleImproved RBS1-1"
 1673, 1674
*Surface, type=ELEMENT, name="_MixOrder4_Beam G2 W36x302 AccessHoleImproved RBS1-1_M", internal
"__MixOrder4_Beam G2 W36x302 AccessHoleImproved RBS1-1_M_S1", S1
*Elset, elset="__MixOrder4_Beam G2 W36x302 AccessHoleImproved RBS1-1_S_S2", internal, instance="Beam G2 W36x302 AccessHoleImproved RBS1-1"
 371, 372
*Surface, type=ELEMENT, name="_MixOrder4_Beam G2 W36x302 AccessHoleImproved RBS1-1_S", internal
"__MixOrder4_Beam G2 W36x302 AccessHoleImproved RBS1-1_S_S2", S2
*Tie, name="_MixOrder4_Beam G2 W36x302 AccessHoleImproved RBS1-1", adjust=no
"_MixOrder4_Beam G2 W36x302 AccessHoleImproved RBS1-1_S", "_MixOrder4_Beam G2 W36x302 AccessHoleImproved RBS1-1_M"
*Elset, elset="__MixOrder5_Beam G2 W36x302 AccessHoleImproved RBS1-1_M_S1", internal, instance="Beam G2 W36x302 AccessHoleImproved RBS1-1", generate
 1601,  1610,     1
*Surface, type=ELEMENT, name="_MixOrder5_Beam G2 W36x302 AccessHoleImproved RBS1-1_M", internal
"__MixOrder5_Beam G2 W36x302 AccessHoleImproved RBS1-1_M_S1", S1
*Elset, elset="__MixOrder5_Beam G2 W36x302 AccessHoleImproved RBS1-1_S_S2", internal, instance="Beam G2 W36x302 AccessHoleImproved RBS1-1", generate
 381,  390,    1
*Surface, type=ELEMENT, name="_MixOrder5_Beam G2 W36x302 AccessHoleImproved RBS1-1_S", internal
"__MixOrder5_Beam G2 W36x302 AccessHoleImproved RBS1-1_S_S2", S2
*Tie, name="_MixOrder5_Beam G2 W36x302 AccessHoleImproved RBS1-1", adjust=no
"_MixOrder5_Beam G2 W36x302 AccessHoleImproved RBS1-1_S", "_MixOrder5_Beam G2 W36x302 AccessHoleImproved RBS1-1_M"
*Elset, elset="__MixOrder6_Beam G2 W36x302 AccessHoleImproved RBS1-1_M_S1", internal, instance="Beam G2 W36x302 AccessHoleImproved RBS1-1"
 1289, 1290
*Surface, type=ELEMENT, name="_MixOrder6_Beam G2 W36x302 AccessHoleImproved RBS1-1_M", internal
"__MixOrder6_Beam G2 W36x302 AccessHoleImproved RBS1-1_M_S1", S1
*Elset, elset="__MixOrder6_Beam G2 W36x302 AccessHoleImproved RBS1-1_S_S2", internal, instance="Beam G2 W36x302 AccessHoleImproved RBS1-1"
 431, 432
*Surface, type=ELEMENT, name="_MixOrder6_Beam G2 W36x302 AccessHoleImproved RBS1-1_S", internal
"__MixOrder6_Beam G2 W36x302 AccessHoleImproved RBS1-1_S_S2", S2
*Tie, name="_MixOrder6_Beam G2 W36x302 AccessHoleImproved RBS1-1", adjust=no
"_MixOrder6_Beam G2 W36x302 AccessHoleImproved RBS1-1_S", "_MixOrder6_Beam G2 W36x302 AccessHoleImproved RBS1-1_M"
*Elset, elset="__MixOrder7_Beam G2 W36x302 AccessHoleImproved RBS1-1_M_S1", internal, instance="Beam G2 W36x302 AccessHoleImproved RBS1-1", generate
 899,  906,    1
*Surface, type=ELEMENT, name="_MixOrder7_Beam G2 W36x302 AccessHoleImproved RBS1-1_M", internal
"__MixOrder7_Beam G2 W36x302 AccessHoleImproved RBS1-1_M_S1", S1
*Elset, elset="__MixOrder7_Beam G2 W36x302 AccessHoleImproved RBS1-1_S_S2", internal, instance="Beam G2 W36x302 AccessHoleImproved RBS1-1", generate
 441,  448,    1
*Surface, type=ELEMENT, name="_MixOrder7_Beam G2 W36x302 AccessHoleImproved RBS1-1_S", internal
"__MixOrder7_Beam G2 W36x302 AccessHoleImproved RBS1-1_S_S2", S2
*Tie, name="_MixOrder7_Beam G2 W36x302 AccessHoleImproved RBS1-1", adjust=no
"_MixOrder7_Beam G2 W36x302 AccessHoleImproved RBS1-1_S", "_MixOrder7_Beam G2 W36x302 AccessHoleImproved RBS1-1_M"
*Elset, elset="__MixOrder8_Beam G2 W36x302 AccessHoleImproved RBS1-1_M_S3", internal, instance="Beam G2 W36x302 AccessHoleImproved RBS1-1"
 2187, 2188
*Surface, type=ELEMENT, name="_MixOrder8_Beam G2 W36x302 AccessHoleImproved RBS1-1_M", internal
"__MixOrder8_Beam G2 W36x302 AccessHoleImproved RBS1-1_M_S3", S3
*Elset, elset="__MixOrder8_Beam G2 W36x302 AccessHoleImproved RBS1-1_S_S5", internal, instance="Beam G2 W36x302 AccessHoleImproved RBS1-1"
 485, 490
*Surface, type=ELEMENT, name="_MixOrder8_Beam G2 W36x302 AccessHoleImproved RBS1-1_S", internal
"__MixOrder8_Beam G2 W36x302 AccessHoleImproved RBS1-1_S_S5", S5
*Tie, name="_MixOrder8_Beam G2 W36x302 AccessHoleImproved RBS1-1", adjust=no
"_MixOrder8_Beam G2 W36x302 AccessHoleImproved RBS1-1_S", "_MixOrder8_Beam G2 W36x302 AccessHoleImproved RBS1-1_M"
*Elset, elset="__MixOrder0_Column 36x24x2-backup-1_M_S2", internal, instance="Column 36x24x2-backup-1", generate
 163,  182,    1
*Surface, type=ELEMENT, name="_MixOrder0_Column 36x24x2-backup-1_M", internal
"__MixOrder0_Column 36x24x2-backup-1_M_S2", S2
*Elset, elset="__MixOrder0_Column 36x24x2-backup-1_S_S1", internal, instance="Column 36x24x2-backup-1", generate
 811,  830,    1
*Surface, type=ELEMENT, name="_MixOrder0_Column 36x24x2-backup-1_S", internal
"__MixOrder0_Column 36x24x2-backup-1_S_S1", S1
*Tie, name="_MixOrder0_Column 36x24x2-backup-1", adjust=no
"_MixOrder0_Column 36x24x2-backup-1_S", "_MixOrder0_Column 36x24x2-backup-1_M"
*Elset, elset="__MixOrder1_Column 36x24x2-backup-1_M_S4", internal, instance="Column 36x24x2-backup-1", generate
 703,  726,    1
*Surface, type=ELEMENT, name="_MixOrder1_Column 36x24x2-backup-1_M", internal
"__MixOrder1_Column 36x24x2-backup-1_M_S4", S4
*Elset, elset="__MixOrder1_Column 36x24x2-backup-1_S_S4", internal, instance="Column 36x24x2-backup-1", generate
  820,  1050,    10
*Surface, type=ELEMENT, name="_MixOrder1_Column 36x24x2-backup-1_S", internal
"__MixOrder1_Column 36x24x2-backup-1_S_S4", S4
*Tie, name="_MixOrder1_Column 36x24x2-backup-1", adjust=no
"_MixOrder1_Column 36x24x2-backup-1_S", "_MixOrder1_Column 36x24x2-backup-1_M"
*Elset, elset="__MixOrder2_Column 36x24x2-backup-1_M_S1", internal, instance="Column 36x24x2-backup-1", generate
 1843,  1862,     1
*Surface, type=ELEMENT, name="_MixOrder2_Column 36x24x2-backup-1_M", internal
"__MixOrder2_Column 36x24x2-backup-1_M_S1", S1
*Elset, elset="__MixOrder2_Column 36x24x2-backup-1_S_S2", internal, instance="Column 36x24x2-backup-1", generate
 1031,  1050,     1
*Surface, type=ELEMENT, name="_MixOrder2_Column 36x24x2-backup-1_S", internal
"__MixOrder2_Column 36x24x2-backup-1_S_S2", S2
*Tie, name="_MixOrder2_Column 36x24x2-backup-1", adjust=no
"_MixOrder2_Column 36x24x2-backup-1_S", "_MixOrder2_Column 36x24x2-backup-1_M"
*Elset, elset="__MixOrder3_Column 36x24x2-backup-1_M_S6", internal, instance="Column 36x24x2-backup-1", generate
 1147,  1170,     1
*Surface, type=ELEMENT, name="_MixOrder3_Column 36x24x2-backup-1_M", internal
"__MixOrder3_Column 36x24x2-backup-1_M_S6", S6
*Elset, elset="__MixOrder3_Column 36x24x2-backup-1_S_S6", internal, instance="Column 36x24x2-backup-1", generate
  811,  1041,    10
*Surface, type=ELEMENT, name="_MixOrder3_Column 36x24x2-backup-1_S", internal
"__MixOrder3_Column 36x24x2-backup-1_S_S6", S6
*Tie, name="_MixOrder3_Column 36x24x2-backup-1", adjust=no
"_MixOrder3_Column 36x24x2-backup-1_S", "_MixOrder3_Column 36x24x2-backup-1_M"
** Constraint: Beam pin end
*Rigid Body, ref node=_PickedSet274, pin nset=_PickedSet371
** Constraint: Column beam weld
*Tie, name="Column beam weld", adjust=yes
"beam weld", "Column face"
** Constraint: Column bottom
*MPC
BEAM, _PickedSet393, m_Set-5
** Constraint: Column continuity plate weld
*Tie, name="Column continuity plate weld", adjust=yes
"SB (2Column)", "Column inner"
*End Assembly
*Amplitude, name="Cyclic loading"
             0.,              0.,              1.,          0.0675,              2.,           0.135,              3.,          0.2025
             4.,            0.27,              5.,          0.3375,              6.,           0.405,              7.,          0.4725
             8.,            0.54,              9.,          0.6075,             10.,           0.675,             11.,            0.54
            12.,           0.405,             13.,            0.27,             14.,           0.135,             15.,              0.
            16.,          -0.135,             17.,           -0.27,             18.,          -0.405,             19.,           -0.54
            20.,          -0.675,             21.,           -0.54,             22.,          -0.405,             23.,           -0.27
            24.,          -0.135,             25.,              0.,             26.,           0.135,             27.,            0.27
            28.,           0.405,             29.,            0.54,             30.,           0.675,             31.,            0.54
            32.,           0.405,             33.,            0.27,             34.,           0.135,             35.,              0.
            36.,          -0.135,             37.,           -0.27,             38.,          -0.405,             39.,           -0.54
            40.,          -0.675,             41.,           -0.54,             42.,          -0.405,             43.,           -0.27
            44.,          -0.135,             45.,              0.,             46.,           0.135,             47.,            0.27
            48.,           0.405,             49.,            0.54,             50.,           0.675,             51.,            0.54
            52.,           0.405,             53.,            0.27,             54.,           0.135,             55.,              0.
            56.,          -0.135,             57.,           -0.27,             58.,          -0.405,             59.,           -0.54
            60.,          -0.675,             61.,           -0.54,             62.,          -0.405,             63.,           -0.27
            64.,          -0.135,             65.,              0.,             66.,           0.135,             67.,            0.27
            68.,           0.405,             69.,            0.54,             70.,           0.675,             71.,            0.54
            72.,           0.405,             73.,            0.27,             74.,           0.135,             75.,              0.
            76.,          -0.135,             77.,           -0.27,             78.,          -0.405,             79.,           -0.54
** ... 151 like lines cut
*Amplitude, name="Cyclic loading2"
             0.,              0.,              1.,           0.675,              2.,          -0.675,              3.,           0.675
             4.,          -0.675,              5.,           0.675,              6.,          -0.675,              7.,           0.675
             8.,          -0.675,              9.,           0.675,             10.,          -0.675,             11.,           0.675
            12.,          -0.675,             13.,             0.9,             14.,            -0.9,             15.,             0.9
            16.,            -0.9,             17.,             0.9,             18.,            -0.9,             19.,             0.9
            20.,            -0.9,             21.,             0.9,             22.,            -0.9,             23.,             0.9
            24.,            -0.9,             25.,           0.225,             26.,            1.35,             27.,              0.
            28.,           -1.35,             29.,              0.,             30.,            1.35,             31.,              0.
            32.,           -1.35,             33.,              0.,             34.,            1.35,             35.,              0.
            36.,           -1.35,             37.,              0.,             38.,            1.35,             39.,              0.
            40.,           -1.35,             41.,              0.,             42.,            1.35,             43.,              0.
            44.,           -1.35,             45.,              0.,             46.,            1.35,             47.,              0.
            48.,           -1.35,             49.,           0.225,             50.,             1.8,             51.,              0.
            52.,            -1.8,             53.,              0.,             54.,             1.8,             55.,              0.
            56.,            -1.8,             57.,              0.,             58.,             1.8,             59.,              0.
            60.,            -1.8,             61.,              0.,             62.,             1.8,             63.,              0.
            64.,            -1.8,             65.,            -0.3,             66.,             1.2,             67.,             2.7
            68.,             0.9,             69.,            -0.9,             70.,            -2.7,             71.,            -0.9
            72.,             0.9,             73.,             2.7,             74.,             0.9,             75.,            -0.9
            76.,            -2.7,             77.,          -1.125,             78.,            0.45,             79.,           2.025
** ... 35 like lines cut
*Amplitude, name="Monotonic Loading"
             0.,              0.,              1.,            2.16,              2.,            4.32,              3.,            6.48
             4.,            8.64,              5.,            10.8
** 
** MATERIALS
** 
*Material, name=BeamA992
*Elastic
29000., 0.3
*Plastic, hardening=COMBINED, datatype=PARAMETERS, number backstresses=1
 59.5,490., 20.
*Cyclic Hardening, parameters
 59.5,13.,12.
*Material, name=ColumnA572
*Elastic
29000., 0.3
*Plastic, hardening=COMBINED, datatype=PARAMETERS, number backstresses=1
 59.8, 481.5,  16.9
*Cyclic Hardening, parameters
 59.8, 18.9, 7.69
*Material, name=ContinuityPlateA572
*Elastic
29000., 0.3
*Plastic, hardening=COMBINED, datatype=PARAMETERS, number backstresses=1
62., 481.5,  16.9
*Cyclic Hardening, parameters
62., 18.9, 7.69
*Material, name=HAZ
*Elastic
29000., 0.3
*Plastic, hardening=COMBINED, datatype=PARAMETERS, number backstresses=1
 70.85, 310.6,  11.5
*Cyclic Hardening, parameters
 70.85, 14.9,   5.
*Material, name=PlateBetweenCPandSB
*Elastic
29000., 0.3
*Plastic, hardening=COMBINED, datatype=PARAMETERS, number backstresses=1
62., 481.5,  16.9
*Cyclic Hardening, parameters
62., 18.9, 7.69
*Material, name=StrengthenBar
*Elastic
29000., 0.3
*Plastic, hardening=COMBINED, datatype=PARAMETERS, number backstresses=1
62., 481.5,  16.9
*Cyclic Hardening, parameters
62., 18.9, 7.69
*Material, name=Welding
*Elastic
29000., 0.3
*Plastic, hardening=COMBINED, datatype=PARAMETERS, number backstresses=1
 67.35, 210.4,    8.
*Cyclic Hardening, parameters
 67.35, 14.9,   5.
*Material, name=Welding-NotESW
*Elastic
29000., 0.3
*Plastic, hardening=COMBINED, datatype=PARAMETERS, number backstresses=1
62., 481.5,  16.9
*Cyclic Hardening, parameters
62., 18.9, 7.69
** 
** BOUNDARY CONDITIONS
** 
** Name: BC-Column bottom Type: /]
*Boundary
_PickedSet33, 1, 1
_PickedSet33, 2, 2
_PickedSet33, 3, 3
_PickedSet33, 4, 4
_PickedSet33, 5, 5
** ----------------------------------------------------------------
*Imperfection, file=Job-Buckling-W36, step=1, NSET=BeamFlange
**136, 0.123841
136, 0.123841
** 
** STEP: Loading
**
*Step, name=Loading, nlgeom=YES, inc=20000
*Static, stabilize=0.0002, allsdtol=0.05, continue=NO
0.001, 216., 6.8e-07, 0.1
** 
** BOUNDARY CONDITIONS
** 
** Name: BC-Bottom left Type: /]
*Boundary
"BC Bottom left", 1, 1
"BC Bottom left", 3, 3
** Name: BC-Top Type: /]
*Boundary
"BC Top", 1, 1
"BC Top", 3, 3
** Name: Load disp Type: /]
*Boundary, amplitude="Cyclic loading2"
_PickedSet34, 1, 1
_PickedSet34, 2, 2, 1.
_PickedSet34, 3, 3
_PickedSet34, 4, 4
_PickedSet34, 5, 5
** 
** OUTPUT REQUESTS
** 
*Restart, write, frequency=0
** 
** FIELD OUTPUT: F-Output-1
** 
*Output, field
*Node Output
RF, UT
*Element Output, directions=YES
PEEQ, 
** 
** HISTORY OUTPUT: H-Output-1
** 
*Output, history, variable=PRESELECT
*End Step
