*Heading
** Job name: Job-Buckling-W36 Model name: 1-1-Buckling-W36-WUF
** Generated by: Abaqus/CAE 2020
*Preprint, echo=NO, model=NO, history=NO, contact=NO
**
** PARTS
**
*Part, name="Beam W36x302"
*Node
      1,        8.625,  -5.44000006,   138.622223
      2,        8.625,  -7.11999989,   138.622223
      3,   7.67500019,  -7.11999989,   138.622787
      4,   7.67500019,  -5.44000006,   138.622787
      5,        8.625,  -5.44000006,   153.612518
      6,        8.625,  -7.11999989,   153.612518
      7,   7.67500019,  -7.11999989,   153.612793
      8,   7.67500019,  -5.44000006,   153.612793
      9,   3.92000008,  -7.11999989,      138.625
     10,   3.92000008,  -5.44000006,      138.625
     11, -0.200000003,  -7.11999989,   153.615158
     12, -0.200000003,  -5.44000006,   153.615158
     13,   7.67500019,   30.1800003,   138.622787
     14,   7.67500019,         28.5,   138.622787
     15,   3.92000008,         28.5,      138.625
     16,   3.92000008,   30.1800003,      138.625
     17,   7.67500019,   30.1800003,   153.612793
     18,   7.67500019,         28.5,   153.612793
     19, -0.200000003,         28.5,   153.615158
     20, -0.200000003,   30.1800003,   153.615158
** ... 4038 like lines cut
*Element, type=C3D8R
 1,  182, 1339, 1343,  175,    1,  171,  172,    4
 2, 1339,  187,  186, 1343,  171,    2,    3,  172
 3,  181, 1340, 1344,  176,  182, 1339, 1343,  175
 4, 1340,  188,  185, 1344, 1339,  187,  186, 1343
 5,  180, 1341, 1345,  177,  181, 1340, 1344,  176
 6, 1341,  189,  184, 1345, 1340,  188,  185, 1344
 7,  179, 1342, 1346,  178,  180, 1341, 1345,  177
 8, 1342,  190,  183, 1346, 1341,  189,  184, 1345
 9,    5,  173,  174,    8,  179, 1342, 1346,  178
10,  173,    6,    7,  174, 1342,  190,  183, 1346
11,  175, 1343, 3579, 1353,    4,  172, 1347,  197
12, 1343,  186, 1365, 3579,  172,    3,  191, 1347
13, 1353, 3579, 3580, 1354,  197, 1347, 1348,  196
14, 3579, 1365, 1366, 3580, 1347,  191,  192, 1348
15, 1354, 3580, 3581, 1355,  196, 1348, 1349,  195
16, 3580, 1366, 1367, 3581, 1348,  192,  193, 1349
17, 1355, 3581, 1377,  205,  195, 1349,  194,   10
18, 3581, 1367,  212, 1377, 1349,  193,    9,  194
19,  176, 1344, 3582, 1356,  175, 1343, 3579, 1353
20, 1344,  185, 1368, 3582, 1343,  186, 1365, 3579
** ... 2280 like lines cut
*Element, type=C3D6
2259, 131, 109, 141, 135, 126, 142
2260, 120, 106, 143, 117, 104, 144
*Nset, nset=_PickedSet4, internal, generate
    1,  4058,     1
*Elset, elset=_PickedSet4, internal, generate
    1,  2302,     1
** Section: Beam
*Solid Section, elset=_PickedSet4, material=BeamA992
,
*End Part
**  
*Part, name="Column 36x24x2"
*Node
      1,         -36.,          -8.,          18.
      2,         -34.,          -8.,          18.
      3,         -34.,         -10.,          18.
      4,         -36.,         -10.,          18.
      5,         -34.,          -8.,         210.
      6,         -34.,         -10.,         210.
      7,         -36.,         -10.,         210.
      8,         -36.,          -8.,         210.
      9,         -36.,          12.,          18.
     10,         -34.,          12.,          18.
     11,         -34.,          12.,         210.
     12,         -36.,          12.,         210.
     13,         -34.,          14.,          18.
     14,         -36.,          14.,          18.
     15,         -36.,          14.,         210.
     16,         -34.,          14.,         210.
     17,          -2.,          14.,          18.
     18,          -2.,          12.,          18.
     19,          -2.,          12.,         210.
     20,          -2.,          14.,         210.
** ... 3400 like lines cut
*Element, type=C3D8R
 1, 158, 206, 205,  65,   1,   2,   3,   4
 2, 157, 207, 204,  66, 158, 206, 205,  65
 3, 156, 208, 203,  67, 157, 207, 204,  66
 4, 155, 209, 202,  68, 156, 208, 203,  67
 5, 154, 210, 201,  69, 155, 209, 202,  68
 6, 153, 211, 200,  70, 154, 210, 201,  69
 7, 152, 212, 199,  71, 153, 211, 200,  70
 8, 151, 213, 198,  72, 152, 212, 199,  71
 9, 150, 214, 197,  73, 151, 213, 198,  72
10, 149, 215, 196,  74, 150, 214, 197,  73
11, 148, 216, 195,  75, 149, 215, 196,  74
12, 147, 217, 194,  76, 148, 216, 195,  75
13, 146, 218, 193,  77, 147, 217, 194,  76
14, 145, 219, 192,  78, 146, 218, 193,  77
15, 144, 220, 191,  79, 145, 219, 192,  78
16, 143, 221, 190,  80, 144, 220, 191,  79
17, 142, 222, 189,  81, 143, 221, 190,  80
18, 141, 223, 188,  82, 142, 222, 189,  81
19, 140, 224, 187,  83, 141, 223, 188,  82
20, 139, 225, 186,  84, 140, 224, 187,  83
** ... 1660 like lines cut
*Nset, nset=_PickedSet2, internal, generate
    1,  3420,     1
*Elset, elset=_PickedSet2, internal, generate
    1,  1680,     1
** Section: Column
*Solid Section, elset=_PickedSet2, material=ColumnA572
,
*End Part
**  
*Part, name=RHSpart
*Node
      1,         -15.,   25.2000008,           0.
      2,          15.,   25.2000008,           0.
      3,   12.2127686,   26.6624889,           0.
      4,   9.28484726,   27.8178291,           0.
      5,    6.2499671,   28.6527119,           0.
      6,   3.14308739,   29.1575203,           0.
      7,  -3.14308739,   29.1575203,           0.
      8,   -6.2499671,   28.6527119,           0.
      9,  -9.28484726,   27.8178291,           0.
     10,  -12.2127686,   26.6624889,           0.
     11,         -12.,   25.2000008,           0.
     12,          -9.,   25.2000008,           0.
     13,          -6.,   25.2000008,           0.
     14,          -3.,   25.2000008,           0.
     15,           0.,   25.2000008,           0.
     16,           3.,   25.2000008,           0.
     17,           6.,   25.2000008,           0.
     18,           9.,   25.2000008,           0.
     19,          12.,   25.2000008,           0.
     20,           0.,   29.3264389,           0.
** ... 67 like lines cut
*Element, type=C3D8R
 1, 18, 19, 21, 24, 47, 48, 50, 53
 2, 23, 22, 11, 12, 52, 51, 40, 41
 3,  9, 23, 26,  8, 38, 52, 55, 37
 4,  7,  8, 26, 29, 36, 37, 55, 58
 5, 29, 28, 20,  7, 58, 57, 49, 36
 6, 27, 25,  5,  6, 56, 54, 34, 35
 7,  4, 24, 21,  3, 33, 53, 50, 32
 8, 22, 10,  1, 11, 51, 39, 30, 40
 9, 26, 23, 12, 13, 55, 52, 41, 42
10, 29, 26, 13, 14, 58, 55, 42, 43
11, 15, 28, 29, 14, 44, 57, 58, 43
12, 16, 27, 28, 15, 45, 56, 57, 44
13, 27, 16, 17, 25, 56, 45, 46, 54
14, 18, 24, 25, 17, 47, 53, 54, 46
15, 28, 27,  6, 20, 57, 56, 35, 49
16, 19,  2,  3, 21, 48, 31, 32, 50
17, 23,  9, 10, 22, 52, 38, 39, 51
18,  4,  5, 25, 24, 33, 34, 54, 53
19, 47, 48, 50, 53, 76, 77, 79, 82
20, 52, 51, 40, 41, 81, 80, 69, 70
** ... 16 like lines cut
*Nset, nset=_PickedSet2, internal, generate
  1,  87,   1
*Elset, elset=_PickedSet2, internal, generate
  1,  36,   1
** Section: Beam
*Solid Section, elset=_PickedSet2, material=BeamA992
,
*End Part
**  
*Part, name="Strengthen bar"
*Node
      1,         3.75,          2.5,          20.
      2,         3.75,           1.,          20.
      3,         3.75,          2.5,          16.
      4,         3.75,           1.,          16.
      5,         3.75,          2.5,          12.
      6,         3.75,           1.,          12.
      7,         3.75,          2.5,           8.
      8,         3.75,           1.,           8.
      9,         3.75,          2.5,           4.
     10,         3.75,           1.,           4.
     11,         3.75,          2.5,           0.
     12,         3.75,           1.,           0.
     13,         0.75,          2.5,          20.
     14,         0.75,           1.,          20.
     15,         0.75,          2.5,          16.
     16,         0.75,           1.,          16.
     17,         0.75,          2.5,          12.
     18,         0.75,           1.,          12.
     19,         0.75,          2.5,           8.
     20,         0.75,           1.,           8.
** ... 4 like lines cut
*Element, type=C3D8R
1, 13, 14, 16, 15,  1,  2,  4,  3
2, 15, 16, 18, 17,  3,  4,  6,  5
3, 17, 18, 20, 19,  5,  6,  8,  7
4, 19, 20, 22, 21,  7,  8, 10,  9
5, 21, 22, 24, 23,  9, 10, 12, 11
*Nset, nset=_PickedSet2, internal, generate
  1,  24,   1
*Elset, elset=_PickedSet2, internal, generate
 1,  5,  1
** Section: StrengthenBar
*Solid Section, elset=_PickedSet2, material=StrengthenBar
,
*End Part
**  
*Part, name="continuity plate"
*Node
      1,         -50.,        -8.75,   1.67999995
      2,         -50.,        -4.75,   1.67999995
      3,         -50.,        -0.75,   1.67999995
      4,         -50.,         3.25,   1.67999995
      5,         -50.,         7.25,   1.67999995
      6,         -50.,        11.25,   1.67999995
      7,         -50.,        15.25,   1.67999995
      8,         -50.,        19.25,   1.67999995
      9,         -50.,        23.25,   1.67999995
     10,         -50.,        -8.75,  0.839999974
     11,         -50.,        -4.75,  0.839999974
     12,         -50.,        -0.75,  0.839999974
     13,         -50.,         3.25,  0.839999974
     14,         -50.,         7.25,  0.839999974
     15,         -50.,        11.25,  0.839999974
     16,         -50.,        15.25,  0.839999974
     17,         -50.,        19.25,  0.839999974
     18,         -50.,        23.25,  0.839999974
     19,         -50.,        -8.75,           0.
     20,         -50.,        -4.75,           0.
** ... 142 like lines cut
*Element, type=C3D8R
 1,  28,  29,  38,  37,   1,   2,  11,  10
 2,  29,  30,  39,  38,   2,   3,  12,  11
 3,  30,  31,  40,  39,   3,   4,  13,  12
 4,  31,  32,  41,  40,   4,   5,  14,  13
 5,  32,  33,  42,  41,   5,   6,  15,  14
 6,  33,  34,  43,  42,   6,   7,  16,  15
 7,  34,  35,  44,  43,   7,   8,  17,  16
 8,  35,  36,  45,  44,   8,   9,  18,  17
 9,  37,  38,  47,  46,  10,  11,  20,  19
10,  38,  39,  48,  47,  11,  12,  21,  20
11,  39,  40,  49,  48,  12,  13,  22,  21
12,  40,  41,  50,  49,  13,  14,  23,  22
13,  41,  42,  51,  50,  14,  15,  24,  23
14,  42,  43,  52,  51,  15,  16,  25,  24
15,  43,  44,  53,  52,  16,  17,  26,  25
16,  44,  45,  54,  53,  17,  18,  27,  26
17,  55,  56,  65,  64,  28,  29,  38,  37
18,  56,  57,  66,  65,  29,  30,  39,  38
19,  57,  58,  67,  66,  30,  31,  40,  39
20,  58,  59,  68,  67,  31,  32,  41,  40
** ... 60 like lines cut
*Nset, nset=_PickedSet2, internal, generate
   1,  162,    1
*Elset, elset=_PickedSet2, internal, generate
  1,  80,   1
** Section: ContinuityPlate
*Solid Section, elset=_PickedSet2, material=ContinuityPlateA572
,
*End Part
**  
**
** ASSEMBLY
**
*Assembly, name=Assembly
**  
*Instance, name="Column 36x24x2-1", part="Column 36x24x2"
          0.,           2.,           2.
          0.,           2.,           2., -1.00000001268805,           2.,           2., 89.9999992730282
*End Instance
**  
*Instance, name="continuity plate-1", part="continuity plate"
      -25.25,       134.65,         -40.
      -25.25,       134.65,         -40., -24.6726497308104, 135.22735026919, -40.5773502691896,         120.
*End Instance
**  
*Instance, name="continuity plate-2", part="continuity plate"
      -25.25,        99.03,         -40.
      -25.25,        99.03,         -40., -24.6726497308104, 99.6073502691896, -40.5773502691896,         120.
*End Instance
**  
*Instance, name="Beam W36x302-1", part="Beam W36x302"
        162.,       104.47, -8.15000000000001
        162.,       104.47, -8.15000000000001,         162., 103.469999987312, -8.15000000000001, 89.9999992730282
*End Instance
**  
*Instance, name="Strengthen bar-1", part="Strengthen bar"
       -5.75,       133.65,         -10.
*End Instance
**  
*Instance, name="Strengthen bar-2", part="Strengthen bar"
       -5.75,       130.47,         -10.
*End Instance
**  
*Instance, name="Strengthen bar-3", part="Strengthen bar"
       -5.75,        98.03,         -10.
*End Instance
**  
*Instance, name="Strengthen bar-4", part="Strengthen bar"
       -5.75,        94.85,         -10.
*End Instance
**  
*Instance, name="Strengthen bar-5", part="Strengthen bar"
      -34.75,        98.03,         -10.
*End Instance
**  
*Instance, name="Strengthen bar-6", part="Strengthen bar"
      -34.75,        94.85,         -10.
*End Instance
**  
*Instance, name="Strengthen bar-7", part="Strengthen bar"
      -34.75,       133.65,         -10.
*End Instance
**  
*Instance, name="Strengthen bar-8", part="Strengthen bar"
      -34.75,       130.47,         -10.
*End Instance
**  
*Instance, name=RHSpart-1, part=RHSpart
      23.375,       134.65,   -33.556439
      23.375,       134.65,   -33.556439, 24.3750000126881,       134.65,   -33.556439, 89.9999992730282
*End Instance
**  
*Instance, name=RHSpart-2, part=RHSpart
       23.38,       132.97,    33.556439
       23.38,       132.97,    33.556439, 22.3799999873119,       132.97,    33.556439, 89.9999992730282
*End Instance
**  
*Instance, name=RHSpart-3, part=RHSpart
      23.375,        99.03,   -33.556439
      23.375,        99.03,   -33.556439, 24.3750000126881,        99.03,   -33.556439, 89.9999992730282
*End Instance
**  
*Instance, name=RHSpart-4, part=RHSpart
       23.38,        97.35,    33.556439
       23.38,        97.35,    33.556439, 22.3799999873119,        97.35,    33.556439, 89.9999992730282
*End Instance
**  
*Node
      1,         162.,         116.,           0.
*Node
      2,         -18.,           2.,           0.
*Node
      3,           0.,         116.,           0.
*Nset, nset="BC Bottom left", instance="Column 36x24x2-1"
   1,   4,   9,  14, 257, 258, 259, 260
*Elset, elset="BC Bottom left", instance="Column 36x24x2-1"
    1,   49,   50,   51,   52,   53,  289, 1393, 1397, 1398, 1399, 1400, 1401, 1417
*Nset, nset="BC Top", instance="Column 36x24x2-1"
   7,   8,  12,  15, 265, 266, 267, 268
*Elset, elset="BC Top", instance="Column 36x24x2-1"
   48,  284,  285,  286,  287,  288,  336, 1597, 1601, 1602, 1603, 1604, 1605, 1677
*Nset, nset=BeamFlange, instance="Beam W36x302-1"
    1,    2,    3,    4,    5,    6,    7,    8,    9,   10,   11,   12,   13,   14,   15,   16
   17,   18,   19,   20,   21,   22,   23,   24,   25,   26,   27,   28,   37,   38,   39,   40
   41,   42,   43,   44,   45,   46,   47,   48,   49,   50,   51,   52,   53,   54,   59,   60
   61,   62,   63,   64,   65,   66,   67,   68,   69,   70,   71,   72,   79,   80,   81,   82
   83,   84,   85,   86,   87,   88,   89,   90,   95,   96,   97,   98,   99,  100,  101,  102
  103,  104,  105,  106,  107,  108,  109,  110,  111,  112,  113,  114,  115,  116,  117,  118
  119,  120,  121,  122,  123,  124,  125,  126,  127,  128,  129,  130,  131,  132,  133,  134
  135,  136,  137,  138,  139,  140,  171,  172,  173,  174,  175,  176,  177,  178,  179,  180
  181,  182,  183,  184,  185,  186,  187,  188,  189,  190,  191,  192,  193,  194,  195,  196
  197,  198,  199,  200,  201,  202,  203,  204,  205,  206,  207,  208,  209,  210,  211,  212
  213,  214,  215,  216,  217,  218,  219,  220,  221,  222,  223,  224,  225,  226,  227,  228
  229,  230,  231,  232,  233,  234,  235,  236,  237,  238,  239,  240,  241,  242,  243,  244
  245,  246,  247,  248,  249,  250,  251,  252,  253,  254,  255,  256,  257,  258,  259,  260
  261,  262,  263,  264,  265,  266,  267,  268,  269,  270,  271,  272,  273,  274,  275,  276
  337,  338,  339,  340,  341,  342,  343,  344,  345,  346,  347,  348,  349,  350,  351,  352
  353,  354,  355,  356,  357,  358,  359,  360,  361,  362,  363,  364,  365,  366,  367,  368
  369,  370,  371,  372,  373,  374,  375,  376,  377,  378,  379,  380,  381,  382,  383,  384
  385,  386,  387,  388,  389,  390,  391,  392,  393,  394,  395,  396,  397,  398,  399,  400
  401,  402,  403,  404,  405,  406,  407,  408,  409,  410,  411,  412,  413,  414,  415,  416
  417,  418,  419,  420,  421,  422,  423,  424,  425,  426,  427,  428,  429,  430,  431,  432
** ... 157 like lines cut
*Nset, nset="Column bottom", instance="Column 36x24x2-1"
  31,  32,  33,  34,  35,  36,  37,  38,  39,  40,  41,  42,  43,  44,  45,  47
 870, 871, 872, 873, 874, 875, 876, 877, 890, 891, 892, 893, 894, 895, 896, 897
 898, 899, 900, 901, 902, 903, 910, 911, 912, 913, 914, 915, 916, 917, 933, 934
 935, 936, 937, 938, 939, 940, 941, 942, 943, 944, 945, 946
*Elset, elset="Column bottom", instance="Column 36x24x2-1"
 1396, 1412, 1413, 1414, 1415, 1416, 1420, 1445, 1446, 1447, 1448, 1449, 1450, 1451, 1452, 1468
 1469, 1470, 1471, 1472, 1476, 1501, 1502, 1503, 1504, 1505, 1506, 1507, 1508, 1512
*Nset, nset=Load, instance="Beam W36x302-1"
   83,   84,   85,   86,   87,   88,   89,   90,   91,   92,   93,   94,   95,   96,   97,   98
   99,  100,  101,  102,  545,  546,  547,  548,  549,  550,  551,  552,  677,  740,  741,  742
  743,  744,  745,  746,  809,  810,  873,  874,  875,  876,  877,  878,  879,  880,  881,  882
  883,  884,  885,  886,  887,  888,  889,  890,  953,  954, 1017, 1018, 1019, 1020, 1021, 1022
 1023, 1024, 1118, 1119, 1120, 1121, 1122, 1123, 1124, 1125, 1819, 1820, 1821, 2101, 2102, 2103
 3003, 3004, 3005, 3254, 3255, 3256
*Elset, elset=Load, instance="Beam W36x302-1"
  799,  800,  801,  802,  803,  804,  805,  806,  869,  870, 1119, 1120, 1121, 1122, 1123, 1124
 1125, 1126, 1189, 1190, 1501, 1502, 1503, 1504, 1505, 1506, 1507, 1508, 1509, 1510, 1573, 1574
 1823, 1824, 1825, 1826, 1827, 1828, 1829, 1830, 2079, 2080, 2081, 2082, 2083, 2084, 2085, 2086
 2149, 2150
*Nset, nset=m_Set-5
 2,
*Nset, nset=_PickedSet33, internal
 2,
*Nset, nset=_PickedSet55, internal
 1,
*Nset, nset=_PickedSet56, internal, instance="Beam W36x302-1"
   83,   84,   85,   86,   87,   88,   89,   90,   91,   92,   93,   94,   95,   96,   97,   98
   99,  100,  101,  102,  545,  546,  547,  548,  549,  550,  551,  552,  677,  740,  741,  742
  743,  744,  745,  746,  809,  810,  873,  874,  875,  876,  877,  878,  879,  880,  881,  882
  883,  884,  885,  886,  887,  888,  889,  890,  953,  954, 1017, 1018, 1019, 1020, 1021, 1022
 1023, 1024, 1118, 1119, 1120, 1121, 1122, 1123, 1124, 1125, 1819, 1820, 1821, 2101, 2102, 2103
 3003, 3004, 3005, 3254, 3255, 3256
*Elset, elset=_PickedSet56, internal, instance="Beam W36x302-1"
  799,  800,  801,  802,  803,  804,  805,  806,  869,  870, 1119, 1120, 1121, 1122, 1123, 1124
 1125, 1126, 1189, 1190, 1501, 1502, 1503, 1504, 1505, 1506, 1507, 1508, 1509, 1510, 1573, 1574
 1823, 1824, 1825, 1826, 1827, 1828, 1829, 1830, 2079, 2080, 2081, 2082, 2083, 2084, 2085, 2086
 2149, 2150
*Nset, nset=_PickedSet57, internal
 1,
*Nset, nset=_PickedSet61, internal
 3,
*Nset, nset=_PickedSet63, internal
 3,
*Nset, nset=_PickedSet78, internal
 1,
*Nset, nset=_PickedSet79, internal, instance="Beam W36x302-1"
  115,  116,  118,  119,  121,  122,  123,  124,  130,  132,  133,  134,  136,  137,  139,  140
  159,  160,  161,  162,  165,  166,  167,  170, 1243, 1244, 1245, 1247, 1248, 1251, 1252, 1253
 1255, 1256, 1257, 1258, 1259, 1260, 1261, 1263, 1273, 1274, 1275, 1276, 1277, 1279, 1280, 1281
 1283, 1285, 1286, 1287, 1288, 1289, 1290, 1291, 1319, 1320, 1321, 1322, 1323, 1324, 1325, 1326
 1327, 1328, 1329, 1330, 1331, 1332, 1333, 1334, 1335, 1336, 3520, 3521, 3522, 3530, 3531, 3532
 3545, 3546, 3547, 3558, 3559, 3560
*Elset, elset=_PickedSet79, internal, instance="Beam W36x302-1"
 2177, 2178, 2179, 2180, 2185, 2186, 2187, 2188, 2193, 2195, 2197, 2199, 2201, 2203, 2205, 2207
 2209, 2211, 2223, 2225, 2227, 2229, 2231, 2233, 2235, 2237, 2240, 2242, 2244, 2246, 2248, 2250
 2252, 2254, 2256, 2258, 2280, 2282, 2284, 2286, 2288, 2290, 2292, 2294, 2296, 2298, 2300, 2302
*Nset, nset=_PickedSet80, internal
 1,
*Nset, nset=_PickedSet82, internal
 3,
*Nset, nset=_PickedSet83, internal, instance="Beam W36x302-1"
  115,  116,  118,  119,  121,  122,  123,  124,  130,  132,  133,  134,  136,  137,  139,  140
 1243, 1244, 1245, 1247, 1248, 1251, 1252, 1253, 1255, 1256, 1257, 1258, 1259, 1260, 1261, 1263
 1273, 1274, 1275, 1276, 1277, 1279, 1280, 1281, 1283, 1285, 1286, 1287, 1288, 1289, 1290, 1291
 3520, 3521, 3522, 3530, 3531, 3532, 3545, 3546, 3547, 3558, 3559, 3560
*Elset, elset=_PickedSet83, internal, instance="Beam W36x302-1"
 2177, 2178, 2179, 2180, 2185, 2186, 2187, 2188, 2193, 2195, 2197, 2199, 2201, 2203, 2205, 2207
 2209, 2211, 2223, 2225, 2227, 2229, 2231, 2233, 2235, 2237, 2240, 2242, 2244, 2246, 2248, 2250
 2252, 2254, 2256, 2258
*Nset, nset=_PickedSet84, internal, instance="Column 36x24x2-1", generate
    1,  3420,     1
*Nset, nset=_PickedSet84, internal, instance="continuity plate-1", generate
   1,  162,    1
*Nset, nset=_PickedSet84, internal, instance="continuity plate-2", generate
   1,  162,    1
*Nset, nset=_PickedSet84, internal, instance="Strengthen bar-1", generate
  1,  24,   1
*Nset, nset=_PickedSet84, internal, instance="Strengthen bar-3", generate
  1,  24,   1
*Nset, nset=_PickedSet84, internal, instance="Strengthen bar-7", generate
  1,  24,   1
*Nset, nset=_PickedSet84, internal, instance="Strengthen bar-5", generate
  1,  24,   1
*Nset, nset=_PickedSet84, internal, instance="Strengthen bar-2", generate
  1,  24,   1
*Nset, nset=_PickedSet84, internal, instance="Strengthen bar-4", generate
  1,  24,   1
*Nset, nset=_PickedSet84, internal, instance="Strengthen bar-8", generate
  1,  24,   1
*Nset, nset=_PickedSet84, internal, instance="Strengthen bar-6", generate
  1,  24,   1
*Elset, elset=_PickedSet84, internal, instance="Column 36x24x2-1", generate
    1,  1680,     1
*Elset, elset=_PickedSet84, internal, instance="continuity plate-1", generate
  1,  80,   1
*Elset, elset=_PickedSet84, internal, instance="continuity plate-2", generate
  1,  80,   1
*Elset, elset=_PickedSet84, internal, instance="Strengthen bar-1", generate
 1,  5,  1
*Elset, elset=_PickedSet84, internal, instance="Strengthen bar-3", generate
 1,  5,  1
*Elset, elset=_PickedSet84, internal, instance="Strengthen bar-7", generate
 1,  5,  1
*Elset, elset=_PickedSet84, internal, instance="Strengthen bar-5", generate
 1,  5,  1
*Elset, elset=_PickedSet84, internal, instance="Strengthen bar-2", generate
 1,  5,  1
*Elset, elset=_PickedSet84, internal, instance="Strengthen bar-4", generate
 1,  5,  1
*Elset, elset=_PickedSet84, internal, instance="Strengthen bar-8", generate
 1,  5,  1
*Elset, elset=_PickedSet84, internal, instance="Strengthen bar-6", generate
 1,  5,  1
*Elset, elset=_BeamEndFlange_S3, internal, instance="Beam W36x302-1", generate
 2240,  2258,     2
*Elset, elset=_BeamEndFlange_S4, internal, instance="Beam W36x302-1", generate
 2193,  2211,     2
*Elset, elset=_BeamEndFlange_S6, internal, instance="Beam W36x302-1", generate
 2223,  2237,     2
*Elset, elset=_BeamEndFlange_S5, internal, instance="Beam W36x302-1"
 2177, 2178, 2179, 2180, 2185, 2186, 2187, 2188
*Surface, type=ELEMENT, name=BeamEndFlange
_BeamEndFlange_S3, S3
_BeamEndFlange_S4, S4
_BeamEndFlange_S6, S6
_BeamEndFlange_S5, S5
*Elset, elset="_Column face_S5", internal, instance="Column 36x24x2-1"
  961,  962,  963,  964,  965,  966,  967,  968,  969,  970,  971,  972,  973,  974,  975,  976
  977,  978,  979,  980,  981,  982,  983,  984,  985,  986,  987,  988,  989,  990,  991,  992
  993,  994,  995,  996,  997,  998,  999, 1000, 1001, 1002, 1003, 1004, 1005, 1006, 1007, 1008
 1513, 1514, 1515, 1516, 1517, 1518, 1519, 1520, 1521, 1522, 1523, 1524, 1525, 1526, 1527, 1528
 1529, 1530, 1531, 1532, 1533, 1534, 1535, 1536, 1537, 1538, 1539, 1540, 1541, 1542, 1543, 1544
 1545, 1546, 1547, 1548, 1549, 1550, 1551, 1552, 1553, 1554, 1555, 1556, 1557, 1558, 1559, 1560
*Elset, elset="_Column face_S6", internal, instance="Column 36x24x2-1", generate
 721,  960,    1
*Surface, type=ELEMENT, name="Column face"
"_Column face_S5", S5
"_Column face_S6", S6
*Elset, elset="_Column inner_S4", internal, instance="Column 36x24x2-1"
  49,  50,  51,  52,  53,  54,  55,  56,  57,  58,  59,  60,  61,  62,  63,  64
  65,  66,  67,  68,  69,  70,  71,  72,  73,  74,  75,  76,  77,  78,  79,  80
  81,  82,  83,  84,  85,  86,  87,  88,  89,  90,  91,  92,  93,  94,  95,  96
  97,  98,  99, 100, 101, 102, 103, 104, 105, 106, 107, 108, 109, 110, 111, 112
 113, 114, 115, 116, 117, 118, 119, 120, 121, 122, 123, 124, 125, 126, 127, 128
 129, 130, 131, 132, 133, 134, 135, 136, 137, 138, 139, 140, 141, 142, 143, 144
 145, 146, 147, 148, 149, 150, 151, 152, 153, 154, 155, 156, 157, 158, 159, 160
 161, 162, 163, 164, 165, 166, 167, 168, 169, 170, 171, 172, 173, 174, 175, 176
 177, 178, 179, 180, 181, 182, 183, 184, 185, 186, 187, 188, 189, 190, 191, 192
 193, 194, 195, 196, 197, 198, 199, 200, 201, 202, 203, 204, 205, 206, 207, 208
 209, 210, 211, 212, 213, 214, 215, 216, 217, 218, 219, 220, 221, 222, 223, 224
 225, 226, 227, 228, 229, 230, 231, 232, 233, 234, 235, 236, 237, 238, 239, 240
 241, 242, 243, 244, 245, 246, 247, 248, 249, 250, 251, 252, 253, 254, 255, 256
 257, 258, 259, 260, 261, 262, 263, 264, 265, 266, 267, 268, 269, 270, 271, 272
 273, 274, 275, 276, 277, 278, 279, 280, 281, 282, 283, 284, 285, 286, 287, 288
 337, 338, 339, 340, 341, 342, 343, 344, 345, 346, 347, 348, 349, 350, 351, 352
 353, 354, 355, 356, 357, 358, 359, 360, 361, 362, 363, 364, 365, 366, 367, 368
 369, 370, 371, 372, 373, 374, 375, 376, 377, 378, 379, 380, 381, 382, 383, 384
 385, 386, 387, 388, 389, 390, 391, 392, 393, 394, 395, 396, 397, 398, 399, 400
 401, 402, 403, 404, 405, 406, 407, 408, 409, 410, 411, 412, 413, 414, 415, 416
** ... 34 like lines cut
*Elset, elset="_Column inner_S5", internal, instance="Column 36x24x2-1", generate
 1009,  1392,     1
*Surface, type=ELEMENT, name="Column inner"
"_Column inner_S4", S4
"_Column inner_S5", S5
*Elset, elset="_Continuity plate to SB_S3", internal, instance="continuity plate-1"
  1,  2,  3,  4,  5,  6,  7,  8, 17, 18, 19, 20, 21, 22, 23, 24
 33, 34, 35, 36, 37, 38, 39, 40, 49, 50, 51, 52, 53, 54, 55, 56
 65, 66, 67, 68, 69, 70, 71, 72
*Elset, elset="_Continuity plate to SB_S3", internal, instance="continuity plate-2"
  1,  2,  3,  4,  5,  6,  7,  8, 17, 18, 19, 20, 21, 22, 23, 24
 33, 34, 35, 36, 37, 38, 39, 40, 49, 50, 51, 52, 53, 54, 55, 56
 65, 66, 67, 68, 69, 70, 71, 72
*Elset, elset="_Continuity plate to SB_S5", internal, instance="continuity plate-1"
  9, 10, 11, 12, 13, 14, 15, 16, 25, 26, 27, 28, 29, 30, 31, 32
 41, 42, 43, 44, 45, 46, 47, 48, 57, 58, 59, 60, 61, 62, 63, 64
 73, 74, 75, 76, 77, 78, 79, 80
*Elset, elset="_Continuity plate to SB_S5", internal, instance="continuity plate-2"
  9, 10, 11, 12, 13, 14, 15, 16, 25, 26, 27, 28, 29, 30, 31, 32
 41, 42, 43, 44, 45, 46, 47, 48, 57, 58, 59, 60, 61, 62, 63, 64
 73, 74, 75, 76, 77, 78, 79, 80
*Surface, type=ELEMENT, name="Continuity plate to SB"
"_Continuity plate to SB_S3", S3
"_Continuity plate to SB_S5", S5
*Elset, elset="_Continuity plate weld_S1", internal, instance="continuity plate-1", generate
 65,  80,   1
*Elset, elset="_Continuity plate weld_S1", internal, instance="continuity plate-2", generate
 65,  80,   1
*Elset, elset="_Continuity plate weld_S6", internal, instance="continuity plate-1", generate
  1,  73,   8
*Elset, elset="_Continuity plate weld_S6", internal, instance="continuity plate-2", generate
  1,  73,   8
*Elset, elset="_Continuity plate weld_S2", internal, instance="continuity plate-1", generate
  1,  16,   1
*Elset, elset="_Continuity plate weld_S2", internal, instance="continuity plate-2", generate
  1,  16,   1
*Elset, elset="_Continuity plate weld_S4", internal, instance="continuity plate-1", generate
  8,  80,   8
*Elset, elset="_Continuity plate weld_S4", internal, instance="continuity plate-2", generate
  8,  80,   8
*Surface, type=ELEMENT, name="Continuity plate weld"
"_Continuity plate weld_S1", S1
"_Continuity plate weld_S6", S6
"_Continuity plate weld_S2", S2
"_Continuity plate weld_S4", S4
*Elset, elset=_RHSbeamSlave_S6, internal, instance=RHSpart-1
  3,  7, 21, 25
*Elset, elset=_RHSbeamSlave_S6, internal, instance=RHSpart-2
  3,  7, 21, 25
*Elset, elset=_RHSbeamSlave_S6, internal, instance=RHSpart-3
  3,  7, 21, 25
*Elset, elset=_RHSbeamSlave_S6, internal, instance=RHSpart-4
  3,  7, 21, 25
*Elset, elset=_RHSbeamSlave_S3, internal, instance=RHSpart-1
  4, 18, 22, 36
*Elset, elset=_RHSbeamSlave_S3, internal, instance=RHSpart-2
  4, 18, 22, 36
*Elset, elset=_RHSbeamSlave_S3, internal, instance=RHSpart-3
  4, 18, 22, 36
*Elset, elset=_RHSbeamSlave_S3, internal, instance=RHSpart-4
  4, 18, 22, 36
*Elset, elset=_RHSbeamSlave_S5, internal, instance=RHSpart-1
  5,  6, 15, 23, 24, 33
*Elset, elset=_RHSbeamSlave_S5, internal, instance=RHSpart-2
  5,  6, 15, 23, 24, 33
*Elset, elset=_RHSbeamSlave_S5, internal, instance=RHSpart-3
  5,  6, 15, 23, 24, 33
*Elset, elset=_RHSbeamSlave_S5, internal, instance=RHSpart-4
  5,  6, 15, 23, 24, 33
*Elset, elset=_RHSbeamSlave_S4, internal, instance=RHSpart-1
  8, 16, 17, 26, 34, 35
*Elset, elset=_RHSbeamSlave_S4, internal, instance=RHSpart-2
  8, 16, 17, 26, 34, 35
*Elset, elset=_RHSbeamSlave_S4, internal, instance=RHSpart-3
  8, 16, 17, 26, 34, 35
*Elset, elset=_RHSbeamSlave_S4, internal, instance=RHSpart-4
  8, 16, 17, 26, 34, 35
*Surface, type=ELEMENT, name=RHSbeamSlave
_RHSbeamSlave_S6, S6
_RHSbeamSlave_S3, S3
_RHSbeamSlave_S4, S4
_RHSbeamSlave_S5, S5
*Elset, elset=_RHSbeamSurface_S6, internal, instance="Beam W36x302-1"
 201, 205, 209, 213, 217, 221, 225, 229, 233, 237, 441, 445, 449, 453, 457, 461
 465, 469, 473, 477
*Elset, elset=_RHSbeamSurface_S5, internal, instance="Beam W36x302-1"
  17,  18,  25,  26,  33,  34,  41,  42,  49,  50,  57,  58,  65,  66,  73,  74
  81,  82,  89,  90,  97,  98, 105, 106, 113, 114, 121, 122, 129, 130, 257, 258
 265, 266, 273, 274, 281, 282, 289, 290, 297, 298, 305, 306, 313, 314, 321, 322
 329, 330, 337, 338, 345, 346, 353, 354, 361, 362, 369, 370
*Surface, type=ELEMENT, name=RHSbeamSurface
_RHSbeamSurface_S6, S6
_RHSbeamSurface_S5, S5
*Elset, elset=_StrengthenBar_S4, internal, instance="Strengthen bar-1", generate
 1,  5,  1
*Elset, elset=_StrengthenBar_S4, internal, instance="Strengthen bar-3", generate
 1,  5,  1
*Elset, elset=_StrengthenBar_S4, internal, instance="Strengthen bar-7", generate
 1,  5,  1
*Elset, elset=_StrengthenBar_S4, internal, instance="Strengthen bar-5", generate
 1,  5,  1
*Elset, elset=_StrengthenBar_S6, internal, instance="Strengthen bar-2", generate
 1,  5,  1
*Elset, elset=_StrengthenBar_S6, internal, instance="Strengthen bar-4", generate
 1,  5,  1
*Elset, elset=_StrengthenBar_S6, internal, instance="Strengthen bar-8", generate
 1,  5,  1
*Elset, elset=_StrengthenBar_S6, internal, instance="Strengthen bar-6", generate
 1,  5,  1
*Surface, type=ELEMENT, name=StrengthenBar
_StrengthenBar_S4, S4
_StrengthenBar_S6, S6
*Elset, elset="_beam weld_S3", internal, instance="Beam W36x302-1", generate
 2240,  2258,     2
*Elset, elset="_beam weld_S4", internal, instance="Beam W36x302-1"
 2193, 2195, 2197, 2199, 2201, 2203, 2205, 2207, 2209, 2211, 2282, 2284, 2286, 2288, 2290, 2292
 2294, 2296, 2298, 2300, 2302
*Elset, elset="_beam weld_S6", internal, instance="Beam W36x302-1", generate
 2223,  2237,     2
*Elset, elset="_beam weld_S2", internal, instance="Beam W36x302-1"
 2280,
*Elset, elset="_beam weld_S5", internal, instance="Beam W36x302-1"
 2177, 2178, 2179, 2180, 2185, 2186, 2187, 2188
*Surface, type=ELEMENT, name="beam weld"
"_beam weld_S3", S3
"_beam weld_S4", S4
"_beam weld_S6", S6
"_beam weld_S2", S2
"_beam weld_S5", S5
** Constraint: Beam pin end
*Rigid Body, ref node=_PickedSet55, pin nset=_PickedSet56
** Constraint: BeamEndFlangeFix
*Rigid Body, ref node=_PickedSet82, pin nset=_PickedSet83
** Constraint: RHSpart
*Tie, name=RHSpart, adjust=yes
RHSbeamSlave, RHSbeamSurface
*End Assembly
*Amplitude, name="Cyclic loading"
             0.,              0.,              1.,          0.0675,              2.,           0.135,              3.,          0.2025
             4.,            0.27,              5.,          0.3375,              6.,           0.405,              7.,          0.4725
             8.,            0.54,              9.,          0.6075,             10.,           0.675,             11.,            0.54
            12.,           0.405,             13.,            0.27,             14.,           0.135,             15.,              0.
            16.,          -0.135,             17.,           -0.27,             18.,          -0.405,             19.,           -0.54
            20.,          -0.675,             21.,           -0.54,             22.,          -0.405,             23.,           -0.27
            24.,          -0.135,             25.,              0.,             26.,           0.135,             27.,            0.27
            28.,           0.405,             29.,            0.54,             30.,           0.675,             31.,            0.54
            32.,           0.405,             33.,            0.27,             34.,           0.135,             35.,              0.
            36.,          -0.135,             37.,           -0.27,             38.,          -0.405,             39.,           -0.54
            40.,          -0.675,             41.,           -0.54,             42.,          -0.405,             43.,           -0.27
            44.,          -0.135,             45.,              0.,             46.,           0.135,             47.,            0.27
            48.,           0.405,             49.,            0.54,             50.,           0.675,             51.,            0.54
            52.,           0.405,             53.,            0.27,             54.,           0.135,             55.,              0.
            56.,          -0.135,             57.,           -0.27,             58.,          -0.405,             59.,           -0.54
            60.,          -0.675,             61.,           -0.54,             62.,          -0.405,             63.,           -0.27
            64.,          -0.135,             65.,              0.,             66.,           0.135,             67.,            0.27
            68.,           0.405,             69.,            0.54,             70.,           0.675,             71.,            0.54
            72.,           0.405,             73.,            0.27,             74.,           0.135,             75.,              0.
            76.,          -0.135,             77.,           -0.27,             78.,          -0.405,             79.,           -0.54
** ... 151 like lines cut
** 
** MATERIALS
** 
*Material, name=BeamA992
*Elastic
29000., 0.3
*Plastic, hardening=COMBINED, datatype=PARAMETERS, number backstresses=1
 59.5,490., 20.
*Cyclic Hardening, parameters
 59.5,13.,12.
*Material, name=ColumnA572
*Elastic
29000., 0.3
*Plastic, hardening=COMBINED, datatype=PARAMETERS, number backstresses=1
 59.8, 481.5,  16.9
*Cyclic Hardening, parameters
 59.8, 18.9, 7.69
*Material, name=ContinuityPlateA572
*Elastic
29000., 0.3
*Plastic, hardening=COMBINED, datatype=PARAMETERS, number backstresses=1
62., 481.5,  16.9
*Cyclic Hardening, parameters
62., 18.9, 7.69
*Material, name=StrengthenBar
*Elastic
29000., 0.3
*Plastic, hardening=COMBINED, datatype=PARAMETERS, number backstresses=1
62., 481.5,  16.9
*Cyclic Hardening, parameters
62., 18.9, 7.69
** ----------------------------------------------------------------
** 
** STEP: Buckling step
** 
*Step, name="Buckling step", nlgeom=NO, perturbation
*Buckle, eigensolver=lanczos
150, , , , 
** 
** BOUNDARY CONDITIONS
** 
** Name: BC-BeamEndPin Type: /]
*Boundary, op=NEW, load case=1
_PickedSet78, 3, 3
_PickedSet78, 4, 4
*Boundary, op=NEW, load case=2
_PickedSet78, 3, 3
_PickedSet78, 4, 4
** Name: BC-BeamEndTmp Type: /]
*Boundary, op=NEW, load case=1
_PickedSet63, 1, 1
_PickedSet63, 2, 2
_PickedSet63, 3, 3
_PickedSet63, 4, 4
_PickedSet63, 6, 6
*Boundary, op=NEW, load case=2
_PickedSet63, 1, 1
_PickedSet63, 2, 2
_PickedSet63, 3, 3
_PickedSet63, 4, 4
_PickedSet63, 6, 6
** Name: ColumnFix Type: //S
*Boundary, op=NEW, load case=1
_PickedSet84, ENCASTRE
*Boundary, op=NEW, load case=2
_PickedSet84, ENCASTRE
** 
** LOADS
** 
** Name: Reference-Load   Type: Concentrated force
*Cload
_PickedSet57, 1, -1.
_PickedSet57, 2, 0.
_PickedSet57, 3, 0.
** 
** OUTPUT REQUESTS
** 
*Restart, write, frequency=0
** 
** FIELD OUTPUT: F-Output-1
** 
*Output, field, variable=PRESELECT
*NODE FILE, GLOBAL=NO,
MODE=136, LAST MODE=138
U
*End Step
